Version 4
SHEET 1 2804 680
WIRE -64 -208 -160 -208
WIRE 48 -208 48 -240
WIRE 48 -208 -64 -208
WIRE 176 -208 48 -208
WIRE 256 -208 176 -208
WIRE -160 -176 -160 -208
WIRE 256 -160 256 -208
WIRE -64 -128 -64 -208
WIRE 176 -128 176 -208
WIRE -208 -96 -288 -96
WIRE 384 -80 304 -80
WIRE -160 16 -160 -80
WIRE -64 16 -64 -64
WIRE -64 16 -160 16
WIRE 16 16 -64 16
WIRE 176 16 176 -64
WIRE 176 16 96 16
WIRE 256 16 256 -64
WIRE 256 16 176 16
WIRE -160 64 -160 16
WIRE 256 64 256 16
WIRE -64 96 -64 16
WIRE 176 96 176 16
WIRE -208 144 -288 144
WIRE 384 144 304 144
WIRE -160 240 -160 160
WIRE -64 240 -64 160
WIRE -64 240 -160 240
WIRE 48 240 -64 240
WIRE 176 240 176 160
WIRE 176 240 48 240
WIRE 256 240 256 160
WIRE 256 240 176 240
WIRE 544 304 544 288
WIRE 432 368 432 352
WIRE 544 416 544 384
WIRE 336 448 336 432
WIRE 432 480 432 448
WIRE 128 512 128 496
WIRE 240 512 240 496
WIRE 336 560 336 528
WIRE 128 624 128 592
WIRE 240 624 240 592
FLAG 128 624 0
FLAG 128 496 Vin
IOPIN 128 496 Out
FLAG 48 -240 Vin
IOPIN 48 -240 In
FLAG -160 16 hs1
FLAG 256 16 hs2
FLAG 48 240 0
FLAG 240 624 0
FLAG 240 496 PWM1
IOPIN 240 496 Out
FLAG 336 560 0
FLAG 336 432 not_PWM1
IOPIN 336 432 Out
FLAG 432 480 0
FLAG 432 352 PWM2
IOPIN 432 352 Out
FLAG 544 416 0
FLAG 544 288 not_PWM2
IOPIN 544 288 Out
FLAG -288 144 PWM1
IOPIN -288 144 In
FLAG -288 -96 not_PWM1
IOPIN -288 -96 In
FLAG 384 144 PWM2
IOPIN 384 144 In
FLAG 384 -80 not_PWM2
IOPIN 384 -80 In
SYMBOL voltage 128 496 R0
WINDOW 3 -49 98 Left 2
WINDOW 123 0 0 Left 0
WINDOW 39 0 0 Left 0
SYMATTR Value 12V
SYMATTR InstName Vin
SYMBOL ind 0 32 R270
WINDOW 0 32 56 VTop 2
WINDOW 3 5 56 VBottom 2
SYMATTR InstName L1
SYMATTR Value 12.4646mH
SYMATTR SpiceLine Rser=1.58
SYMBOL diode -48 -64 R180
WINDOW 0 24 64 Left 2
WINDOW 3 24 0 Left 2
SYMATTR InstName D5
SYMBOL diode -48 160 R180
WINDOW 0 24 64 Left 2
WINDOW 3 24 0 Left 2
SYMATTR InstName D6
SYMBOL diode 192 -64 R180
WINDOW 0 24 64 Left 2
WINDOW 3 24 0 Left 2
SYMATTR InstName D7
SYMBOL diode 192 160 R180
WINDOW 0 24 64 Left 2
WINDOW 3 24 0 Left 2
SYMATTR InstName D8
SYMBOL voltage 240 496 R0
WINDOW 123 0 0 Left 0
WINDOW 39 0 0 Left 0
SYMATTR InstName V1
SYMATTR Value PWL file=pwm1.txt
SYMBOL nmos -208 -176 R0
SYMATTR InstName M1
SYMATTR Value irf630
SYMATTR Prefix X
SYMBOL nmos -208 64 R0
SYMATTR InstName M2
SYMATTR Value irf630
SYMATTR Prefix X
SYMBOL nmos 304 64 M0
SYMATTR InstName M3
SYMATTR Value irf630
SYMATTR Prefix X
SYMBOL nmos 304 -160 M0
SYMATTR InstName M4
SYMATTR Value irf630
SYMATTR Prefix X
SYMBOL voltage 336 432 R0
WINDOW 123 0 0 Left 0
WINDOW 39 0 0 Left 0
SYMATTR InstName V2
SYMATTR Value PWL file=pwm1_not.txt
SYMBOL voltage 432 352 R0
WINDOW 123 0 0 Left 0
WINDOW 39 0 0 Left 0
SYMATTR InstName V3
SYMATTR Value PWL file=pwm2.txt
SYMBOL voltage 544 288 R0
WINDOW 123 0 0 Left 0
WINDOW 39 0 0 Left 0
SYMATTR InstName V4
SYMATTR Value PWL file=pwm2_not.txt
TEXT -368 336 Left 2 !.tran 1u 126.5m 60m 1u
TEXT 976 -144 Left 2 !.SUBCKT irf630 1 2 3\nM1 9 7 8 8 MM L=100u W=100u\n.MODEL MM NMOS LEVEL=1 IS=1e-32\n+VTO=3.90614 LAMBDA=0 KP=2.70091\n+CGSO=7.25845e-06 CGDO=1e-11\nRS 8 3 0.0001\nD1 3 1 MD\n.MODEL MD D IS=2.59955e-15 RS=0.0232241 N=0.818263 BV=200\n+IBV=0.00025 EG=1 XTI=2.54918 TT=0\n+CJO=6.35847e-10 VJ=5 M=0.772431 FC=0.5\nRDS 3 1 8e+06\nRD 9 1 0.169992\nRG 2 7 4.09017\nD2 4 5 MD1\n.MODEL MD1 D IS=1e-32 N=50\n+CJO=1.28188e-09 VJ=1.20026 M=0.9 FC=1e-08\nD3 0 5 MD2\n.MODEL MD2 D IS=1e-10 N=0.413904 RS=3e-06\nRL 5 10 1\nFI2 7 9 VFI2 -1\nVFI2 4 0 0\nEV16 10 0 9 7 1\nCAP 11 10 1.2819e-09\nFI1 7 9 VFI1 -1\nVFI1 11 6 0\nRCAP 6 10 1\nD4 0 6 MD3\n.MODEL MD3 D IS=1e-10 N=0.413904\n.ENDS
TEXT -368 360 Left 2 !.ic I(L1)=0
